*SPEF "1481-1998"
*DESIGN "Top"
*DATE "Mon Sep  1 21:07:51 2025"
*VENDOR "Synopsys, Inc."
*PROGRAM "icc2 /nfs/png/disks/MDC_Elite/cad/iccompilerII/S-2021.06-SP2/linux64/nwtn/bin/icc2_exec"
*VERSION "S-2021.06-SP2 Aug 26, 2021"
*DESIGN_FLOW "ICC2 SPEF DR"
*DIVIDER /
*DELIMITER :
*BUS_DELIMITER [ ]
*T_UNIT 1 NS
*C_UNIT 1 FF
*R_UNIT 1 OHM
*L_UNIT 1 HENRY

// XY_UNIT 1 UM
// PARASITIC_TECH maxTLU at 125.000 degree

*NAME_MAP
*1 clk
*2 sclk
*3 rst_n
*4 in_a[31]
*5 in_a[30]
*6 in_a[29]
*7 in_a[28]
*8 in_a[27]
*9 in_a[26]
*10 in_a[25]
*11 in_a[24]
*12 in_a[23]
*13 in_a[22]
*14 in_a[21]
*15 in_a[20]
*16 in_a[19]
*17 in_a[18]
*18 in_a[17]
*19 in_a[16]
*20 in_a[15]
*21 in_a[14]
*22 in_a[13]
*23 in_a[12]
*24 in_a[11]
*25 in_a[10]
*26 in_a[9]
*27 in_a[8]
*28 in_a[7]
*29 in_a[6]
*30 in_a[5]
*31 in_a[4]
*32 in_a[3]
*33 in_a[2]
*34 in_a[1]
*35 in_a[0]
*36 in_b[31]
*37 in_b[30]
*38 in_b[29]
*39 in_b[28]
*40 in_b[27]
*41 in_b[26]
*42 in_b[25]
*43 in_b[24]
*44 in_b[23]
*45 in_b[22]
*46 in_b[21]
*47 in_b[20]
*48 in_b[19]
*49 in_b[18]
*50 in_b[17]
*51 in_b[16]
*52 in_b[15]
*53 in_b[14]
*54 in_b[13]
*55 in_b[12]
*56 in_b[11]
*57 in_b[10]
*58 in_b[9]
*59 in_b[8]
*60 in_b[7]
*61 in_b[6]
*62 in_b[5]
*63 in_b[4]
*64 in_b[3]
*65 in_b[2]
*66 in_b[1]
*67 in_b[0]
*68 in_c[63]
*69 in_c[62]
*70 in_c[61]
*71 in_c[60]
*72 in_c[59]
*73 in_c[58]
*74 in_c[57]
*75 in_c[56]
*76 in_c[55]
*77 in_c[54]
*78 in_c[53]
*79 in_c[52]
*80 in_c[51]
*81 in_c[50]
*82 in_c[49]
*83 in_c[48]
*84 in_c[47]
*85 in_c[46]
*86 in_c[45]
*87 in_c[44]
*88 in_c[43]
*89 in_c[42]
*90 in_c[41]
*91 in_c[40]
*92 in_c[39]
*93 in_c[38]
*94 in_c[37]
*95 in_c[36]
*96 in_c[35]
*97 in_c[34]
*98 in_c[33]
*99 in_c[32]
*100 in_c[31]
*101 in_c[30]
*102 in_c[29]
*103 in_c[28]
*104 in_c[27]
*105 in_c[26]
*106 in_c[25]
*107 in_c[24]
*108 in_c[23]
*109 in_c[22]
*110 in_c[21]
*111 in_c[20]
*112 in_c[19]
*113 in_c[18]
*114 in_c[17]
*115 in_c[16]
*116 in_c[15]
*117 in_c[14]
*118 in_c[13]
*119 in_c[12]
*120 in_c[11]
*121 in_c[10]
*122 in_c[9]
*123 in_c[8]
*124 in_c[7]
*125 in_c[6]
*126 in_c[5]
*127 in_c[4]
*128 in_c[3]
*129 in_c[2]
*130 in_c[1]
*131 in_c[0]
*132 final_out[2047]
*133 final_out[2046]
*134 final_out[2045]
*135 final_out[2044]
*136 final_out[2043]
*137 final_out[2042]
*138 final_out[2041]
*139 final_out[2040]
*140 final_out[2039]
*141 final_out[2038]
*142 final_out[2037]
*143 final_out[2036]
*144 final_out[2035]
*145 final_out[2034]
*146 final_out[2033]
*147 final_out[2032]
*148 final_out[2031]
*149 final_out[2030]
*150 final_out[2029]
*151 final_out[2028]
*152 final_out[2027]
*153 final_out[2026]
*154 final_out[2025]
*155 final_out[2024]
*156 final_out[2023]
*157 final_out[2022]
*158 final_out[2021]
*159 final_out[2020]
*160 final_out[2019]
*161 final_out[2018]
*162 final_out[2017]
*163 final_out[2016]
*164 final_out[2015]
*165 final_out[2014]
*166 final_out[2013]
*167 final_out[2012]
*168 final_out[2011]
*169 final_out[2010]
*170 final_out[2009]
*171 final_out[2008]
*172 final_out[2007]
*173 final_out[2006]
*174 final_out[2005]
*175 final_out[2004]
*176 final_out[2003]
*177 final_out[2002]
*178 final_out[2001]
*179 final_out[2000]
*180 final_out[1999]
*181 final_out[1998]
*182 final_out[1997]
*183 final_out[1996]
*184 final_out[1995]
*185 final_out[1994]
*186 final_out[1993]
*187 final_out[1992]
*188 final_out[1991]
*189 final_out[1990]
*190 final_out[1989]
*191 final_out[1988]
*192 final_out[1987]
*193 final_out[1986]
*194 final_out[1985]
*195 final_out[1984]
*196 final_out[1983]
*197 final_out[1982]
*198 final_out[1981]
*199 final_out[1980]
*200 final_out[1979]
*201 final_out[1978]
*202 final_out[1977]
*203 final_out[1976]
*204 final_out[1975]
*205 final_out[1974]
*206 final_out[1973]
*207 final_out[1972]
*208 final_out[1971]
*209 final_out[1970]
*210 final_out[1969]
*211 final_out[1968]
*212 final_out[1967]
*213 final_out[1966]
*214 final_out[1965]
*215 final_out[1964]
*216 final_out[1963]
*217 final_out[1962]
*218 final_out[1961]
*219 final_out[1960]
*220 final_out[1959]
*221 final_out[1958]
*222 final_out[1957]
*223 final_out[1956]
*224 final_out[1955]
*225 final_out[1954]
*226 final_out[1953]
*227 final_out[1952]
*228 final_out[1951]
*229 final_out[1950]
*230 final_out[1949]
*231 final_out[1948]
*232 final_out[1947]
*233 final_out[1946]
*234 final_out[1945]
*235 final_out[1944]
*236 final_out[1943]
*237 final_out[1942]
*238 final_out[1941]
*239 final_out[1940]
*240 final_out[1939]
*241 final_out[1938]
*242 final_out[1937]
*243 final_out[1936]
*244 final_out[1935]
*245 final_out[1934]
*246 final_out[1933]
*247 final_out[1932]
*248 final_out[1931]
*249 final_out[1930]
*250 final_out[1929]
*251 final_out[1928]
*252 final_out[1927]
*253 final_out[1926]
*254 final_out[1925]
*255 final_out[1924]
*256 final_out[1923]
*257 final_out[1922]
*258 final_out[1921]
*259 final_out[1920]
*260 final_out[1919]
*261 final_out[1918]
*262 final_out[1917]
*263 final_out[1916]
*264 final_out[1915]
*265 final_out[1914]
*266 final_out[1913]
*267 final_out[1912]
*268 final_out[1911]
*269 final_out[1910]
*270 final_out[1909]
*271 final_out[1908]
*272 final_out[1907]
*273 final_out[1906]
*274 final_out[1905]
*275 final_out[1904]
*276 final_out[1903]
*277 final_out[1902]
*278 final_out[1901]
*279 final_out[1900]
*280 final_out[1899]
*281 final_out[1898]
*282 final_out[1897]
*283 final_out[1896]
*284 final_out[1895]
*285 final_out[1894]
*286 final_out[1893]
*287 final_out[1892]
*288 final_out[1891]
*289 final_out[1890]
*290 final_out[1889]
*291 final_out[1888]
*292 final_out[1887]
*293 final_out[1886]
*294 final_out[1885]
*295 final_out[1884]
*296 final_out[1883]
*297 final_out[1882]
*298 final_out[1881]
*299 final_out[1880]
*300 final_out[1879]
*301 final_out[1878]
*302 final_out[1877]
*303 final_out[1876]
*304 final_out[1875]
*305 final_out[1874]
*306 final_out[1873]
*307 final_out[1872]
*308 final_out[1871]
*309 final_out[1870]
*310 final_out[1869]
*311 final_out[1868]
*312 final_out[1867]
*313 final_out[1866]
*314 final_out[1865]
*315 final_out[1864]
*316 final_out[1863]
*317 final_out[1862]
*318 final_out[1861]
*319 final_out[1860]
*320 final_out[1859]
*321 final_out[1858]
*322 final_out[1857]
*323 final_out[1856]
*324 final_out[1855]
*325 final_out[1854]
*326 final_out[1853]
*327 final_out[1852]
*328 final_out[1851]
*329 final_out[1850]
*330 final_out[1849]
*331 final_out[1848]
*332 final_out[1847]
*333 final_out[1846]
*334 final_out[1845]
*335 final_out[1844]
*336 final_out[1843]
*337 final_out[1842]
*338 final_out[1841]
*339 final_out[1840]
*340 final_out[1839]
*341 final_out[1838]
*342 final_out[1837]
*343 final_out[1836]
*344 final_out[1835]
*345 final_out[1834]
*346 final_out[1833]
*347 final_out[1832]
*348 final_out[1831]
*349 final_out[1830]
*350 final_out[1829]
*351 final_out[1828]
*352 final_out[1827]
*353 final_out[1826]
*354 final_out[1825]
*355 final_out[1824]
*356 final_out[1823]
*357 final_out[1822]
*358 final_out[1821]
*359 final_out[1820]
*360 final_out[1819]
*361 final_out[1818]
*362 final_out[1817]
*363 final_out[1816]
*364 final_out[1815]
*365 final_out[1814]
*366 final_out[1813]
*367 final_out[1812]
*368 final_out[1811]
*369 final_out[1810]
*370 final_out[1809]
*371 final_out[1808]
*372 final_out[1807]
*373 final_out[1806]
*374 final_out[1805]
*375 final_out[1804]
*376 final_out[1803]
*377 final_out[1802]
*378 final_out[1801]
*379 final_out[1800]
*380 final_out[1799]
*381 final_out[1798]
*382 final_out[1797]
*383 final_out[1796]
*384 final_out[1795]
*385 final_out[1794]
*386 final_out[1793]
*387 final_out[1792]
*388 final_out[1791]
*389 final_out[1790]
*390 final_out[1789]
*391 final_out[1788]
*392 final_out[1787]
*393 final_out[1786]
*394 final_out[1785]
*395 final_out[1784]
*396 final_out[1783]
*397 final_out[1782]
*398 final_out[1781]
*399 final_out[1780]


*D_NET *2144 21.73646 //LENGTH 188.226 LUMPCC 0 DR

*CONN
*I *40920:Y O *L 0 *C 178.080 30.184
*P *2144 O *L 0.95619 *C 20.608 0.258
*N *2144:2 *C 20.608 12.691
*N *2144:3 *C 20.622 12.704
*N *2144:4 *C 25.459 12.704
*N *2144:5 *C 25.472 12.718
*N *2144:6 *C 25.472 14.211
*N *2144:7 *C 25.486 14.224
*N *2144:8 *C 53.275 14.224
*N *2144:9 *C 53.288 14.238
*N *2144:10 *C 53.288 16.762
*N *2144:11 *C 53.288 16.772
*N *2144:12 *C 53.326 16.808
*N *2144:13 *C 78.399 16.808
*N *2144:14 *C 78.400 16.808
*N *2144:15 *C 103.233 16.808
*N *2144:16 *C 153.233 16.808
*N *2144:17 *C 158.399 16.808
*N *2144:18 *C 158.400 16.808
*N *2144:19 *C 177.273 16.808
*N *2144:20 *C 177.308 16.808
*N *2144:21 *C 177.320 16.844
*N *2144:22 *C 177.320 30.138
*N *2144:23 *C 177.320 30.148
*N *2144:24 *C 177.358 30.184

*CAP
0 *40920:Y 0.05587711
1 *2144 0.475774
2 *2144:2 0.4734034
3 *2144:3 0.1875066
4 *2144:4 0.1875061
5 *2144:5 0.06948262
6 *2144:6 0.0694821
7 *2144:7 1.27189
8 *2144:8 1.27189
9 *2144:9 0.115809
10 *2144:10 0.1243493
11 *2144:11 0.004092651
12 *2144:12 1.51468
13 *2144:13 1.516756
14 *2144:14 1.614714
15 *2144:15 4.867949
16 *2144:16 3.589178
17 *2144:17 0.3359442
18 *2144:18 1.227803
19 *2144:19 1.234474
20 *2144:20 0.004595544
21 *2144:21 0.7241343
22 *2144:22 0.7368245
23 *2144:23 0.008539362
24 *2144:24 0.05380172

*RES
0 *40920:Y *2144:24 1.445
1 *2144:24 *2144:23 1
2 *2144:23 *2144:22 0.01666667
3 *2144:20 *2144:19 0.07000001
4 *2144:21 *2144:20 1
5 *2144:12 *2144:11 1
6 *2144:11 *2144:10 0.01666667
7 *2144:9 *2144:8 0.5
8 *2144:8 *2144:7 49.62321
9 *2144:7 *2144:6 0.5
10 *2144:6 *2144:5 2.666071
11 *2144:5 *2144:4 0.5
12 *2144:4 *2144:3 8.637501
13 *2144:3 *2144:2 0.5
14 *2144:2 *2144 22.20089
15 *2144:19 *2144:18 37.745
16 *2144:10 *2144:9 4.508036
17 *2144:22 *2144:21 23.73929
18 *2144:15 *2144:14 49.66601
19 *2144:16 *2144:15 100
20 *2144:18 *2144:17 0.01
21 *2144:17 *2144:16 10.332
22 *2144:14 *2144:13 0.01
23 *2144:13 *2144:12 50.14701

*END

*D_NET *2139 33.34568 //LENGTH 265.726 LUMPCC 0 DR

*CONN
*I *40921:Y O *L 0 *C 250.888 33.528
*P *2139 O *L 0.95619 *C 19.392 0.258
*N *2139:2 *C 23.952 6.442
*N *2139:3 *C 19.392 6.611
*N *2139:4 *C 19.405 6.624
*N *2139:5 *C 23.939 6.624
*N *2139:6 *C 23.952 6.612
*N *2139:7 *C 23.966 6.624
*N *2139:8 *C 26.523 6.624
*N *2139:9 *C 26.536 6.638
*N *2139:10 *C 26.536 10.074
*N *2139:11 *C 26.536 10.084
*N *2139:12 *C 26.574 10.120
*N *2139:13 *C 76.481 10.120
*N *2139:14 *C 78.399 10.120
*N *2139:15 *C 78.400 10.120
*N *2139:16 *C 126.481 10.120
*N *2139:17 *C 158.399 10.120
*N *2139:18 *C 158.400 10.120
*N *2139:19 *C 176.481 10.120
*N *2139:20 *C 226.481 10.120
*N *2139:21 *C 238.399 10.120
*N *2139:22 *C 238.400 10.120
*N *2139:23 *C 250.233 10.120
*N *2139:24 *C 250.268 10.120
*N *2139:25 *C 250.280 10.156
*N *2139:26 *C 250.280 33.482
*N *2139:27 *C 250.280 33.492
*N *2139:28 *C 250.318 33.528

*CAP
0 *40921:Y 0.04460241
1 *2139 0.2412884
2 *2139:2 0.0129494
3 *2139:3 0.2389178
4 *2139:4 0.1892848
5 *2139:5 0.1892843
6 *2139:6 0.008206578
7 *2139:7 0.117993
8 *2139:8 0.1179925
9 *2139:9 0.145736
10 *2139:10 0.153382
11 *2139:11 0.003198352
12 *2139:12 3.118657
13 *2139:13 3.245698
14 *2139:14 0.1249661
15 *2139:15 3.126926
16 *2139:16 5.203301
17 *2139:17 2.076375
18 *2139:18 1.17521
19 *2139:19 4.429571
20 *2139:20 4.029251
21 *2139:21 0.7748902
22 *2139:22 0.7707317
23 *2139:23 0.7774249
24 *2139:24 0.004617828
25 *2139:25 1.483367
26 *2139:26 1.493423
27 *2139:27 0.005906094
28 *2139:28 0.04252701

*RES
0 *40921:Y *2139:28 1.141
1 *2139:28 *2139:27 1
2 *2139:27 *2139:26 0.01666667
3 *2139:24 *2139:23 0.07000001
4 *2139:25 *2139:24 1
5 *2139:12 *2139:11 1
6 *2139:11 *2139:10 0.01666667
7 *2139:9 *2139:8 0.5
8 *2139:8 *2139:7 4.566072
9 *2139:7 *2139:6 0.5
10 *2139:6 *2139:5 0.5
11 *2139:6 *2139:2 0.2825
12 *2139:5 *2139:4 8.094644
13 *2139:4 *2139:3 0.5
14 *2139:3 *2139 11.34375
15 *2139:23 *2139:22 23.665
16 *2139:10 *2139:9 6.136607
17 *2139:26 *2139:25 41.65357
18 *2139:13 *2139:12 99.81504
19 *2139:16 *2139:15 96.16203
20 *2139:19 *2139:18 36.162
21 *2139:20 *2139:19 100
22 *2139:22 *2139:21 0.01
23 *2139:21 *2139:20 23.836
24 *2139:15 *2139:14 0.01
25 *2139:14 *2139:13 3.836
26 *2139:18 *2139:17 0.01
27 *2139:17 *2139:16 63.83602

*END

*D_NET *3709 13.14737 //LENGTH 131.576 LUMPCC 0 DR

*CONN
*I *41374:Y O *L 0 *C 212.584 416.112
*P *3709 O *L 0.95619 *C 199.056 531.310
*I *6215:A I *L 0.561237 *C 212.265 460.496
*N *3709:3 *C 210.798 460.496
*N *3709:4 *C 210.760 460.496
*N *3709:5 *C 199.056 510.441
*N *3709:6 *C 199.056 478.400
*N *3709:7 *C 199.056 478.399
*N *3709:8 *C 199.056 460.510
*N *3709:9 *C 199.070 460.496
*N *3709:10 *C 210.595 460.496
*N *3709:11 *C 210.608 460.483
*N *3709:12 *C 210.608 435.720
*N *3709:13 *C 210.760 435.720
*N *3709:14 *C 210.760 435.112
*N *3709:15 *C 210.608 435.112
*N *3709:16 *C 210.608 417.341
*N *3709:17 *C 210.621 417.328
*N *3709:18 *C 212.419 417.328
*N *3709:19 *C 212.432 417.315
*N *3709:20 *C 212.432 416.148
*N *3709:21 *C 212.470 416.112

*CAP
0 *41374:Y 0.01583381
1 *3709 0.862108
2 *6215:A 0.08606052
3 *3709:3 0.08398511
4 *3709:4 0.008008745
5 *3709:5 2.462346
6 *3709:6 1.600238
7 *3709:7 0.8426275
8 *3709:8 0.8402558
9 *3709:9 0.5337157
10 *3709:10 0.5337151
11 *3709:11 1.312796
12 *3709:12 1.314279
13 *3709:13 0.06233387
14 *3709:14 0.06198248
15 *3709:15 1.113255
16 *3709:16 1.102039
17 *3709:17 0.09111401
18 *3709:18 0.09111401
19 *3709:19 0.05775381
20 *3709:20 0.05805063
21 *3709:21 0.01375841

*RES
0 *41374:Y *3709:21 0.229
50 *79526:305 *79526:304 2.903571
451 *79526:306 *79526:305 0.5428572
452 *79526:320 *79526:319 0.01666667
453 *79526:485 *79526:484 0.4589286
454 *79526:228 *79526:227 0.01666667
455 *79526:229 *79526:228 1.817857
456 *79526:494 *79526:493 0.01666667
457 *79526:258 *79526:257 0.01666667
458 *79526:297 *79526:296 0.01666667
459 *79526:504 *79526:503 2.632143
460 *79526:223 *79526:222 0.01666667
461 *79526:207 *79526:206 0.4589286
462 *79526:187 *79526:186 0.7303572
463 *79526:131 *79526:130 0.4589286
464 *79526:116 *79526:115 0.4589286
465 *79526:113 *79526:112 0.2303572
466 *79526:163 *79526:162 0.4589286
467 *79526:155 *79526:154 0.01666667
468 *79526:151 *79526:150 0.4589286
469 *79526:374 *79526:373 0.255
470 *79526:355 *79526:354 9.745537
471 *79526:416 *79526:415 0.2696429
472 *79526:460 *79526:459 6.785715
473 *79526:460 *79526:243 1.333036
474 *79526:91 *79526:90 5.675893
475 *79526:443 *79526:442 2.690179
476 *79526:443 *79526:435 0.5410715
477 *79526:327 *79526:326 0.5428572
478 *79526:327 *79526:318 1.085714
479 *79526:318 *79526:317 0.8125
480 *79526:317 *79526:316 0.2341667
481 *79526:226 *79526:225 0.5428572
482 *79526:501 *79526:500 0.5410714
483 *79526:250 *79526:249 6.49018
484 *79526:266 *79526:265 7.847322
485 *79526:190 *79526:189 0.2696429
486 *79526:184 *79526:183 0.2775
487 *79526:166 *79526:165 0.5410715
488 *79526:125 *79526:124 1.061607
489 *79526:125 *79526:121 0.5410715
490 *79526:371 *79526:370 5.971429
491 *79526:216 *79526:215 0.5428572
492 *79526:219 *79526:218 2.571429
493 *79526:215 *79526:214 1.061607
494 *79526:176 *79526:175 0.5428572
495 *79526:390 *79526:389 0.01
496 *79526:389 *79526:388 1.745536
497 *79526:447 *79526:446 0.01
498 *79526:446 *79526:445 2.288393
499 *79526:468 *79526:467 4.742857
500 *79526:469 *79526:468 0.01
501 *79526:233 *79526:232 2.004464
502 *79526:234 *79526:233 0.01
503 *79526:218 *79526:217 0.01
504 *79526:217 *79526:216 1.769643
505 *79526:170 *79526:169 0.01
506 *79526:169 *79526:168 2.83125

*END
